Version 4
SHEET 1 888 680
WIRE -416 -80 -480 -80
WIRE -416 -64 -416 -80
WIRE -480 -48 -480 -80
WIRE -1168 -32 -1232 -32
WIRE -1936 -16 -2000 -16
WIRE -1168 -16 -1168 -32
WIRE -1936 0 -1936 -16
WIRE -1232 0 -1232 -32
WIRE -2000 16 -2000 -16
WIRE -416 64 -416 16
WIRE -304 64 -416 64
WIRE -192 64 -224 64
WIRE -1168 112 -1168 64
WIRE -1056 112 -1168 112
WIRE -944 112 -976 112
WIRE -1936 128 -1936 80
WIRE -1824 128 -1936 128
WIRE -1712 128 -1744 128
WIRE -416 144 -416 64
WIRE -304 144 -416 144
WIRE 752 144 720 144
WIRE 800 144 752 144
WIRE -192 160 -192 64
WIRE -192 160 -240 160
WIRE -96 160 -192 160
WIRE -816 176 -832 176
WIRE -624 176 -672 176
WIRE -560 176 -624 176
WIRE -416 176 -496 176
WIRE -304 176 -416 176
WIRE -1168 192 -1168 112
WIRE -1056 192 -1168 192
WIRE -416 192 -416 176
WIRE -1936 208 -1936 128
WIRE -1824 208 -1936 208
WIRE -944 208 -944 112
WIRE -944 208 -992 208
WIRE 752 208 752 144
WIRE -1712 224 -1712 128
WIRE -1712 224 -1760 224
WIRE -1616 224 -1712 224
WIRE -1488 224 -1536 224
WIRE -1376 224 -1424 224
WIRE -1312 224 -1376 224
WIRE -1168 224 -1248 224
WIRE -1056 224 -1168 224
WIRE -2336 240 -2352 240
WIRE -2144 240 -2192 240
WIRE -2080 240 -2144 240
WIRE -1936 240 -2016 240
WIRE -1824 240 -1936 240
WIRE -1168 240 -1168 224
WIRE -1936 256 -1936 240
WIRE -832 272 -832 176
WIRE -2352 336 -2352 240
WIRE -624 336 -624 176
WIRE -320 336 -624 336
WIRE -192 336 -192 160
WIRE -192 336 -240 336
WIRE -1376 384 -1376 224
WIRE -1072 384 -1376 384
WIRE -944 384 -944 208
WIRE -944 384 -992 384
WIRE -832 384 -832 352
WIRE -2144 400 -2144 240
WIRE -1840 400 -2144 400
WIRE -1712 400 -1712 224
WIRE -1712 400 -1760 400
WIRE -2352 448 -2352 416
FLAG -416 272 0
FLAG -480 -48 0
FLAG -832 384 0
FLAG 752 288 0
FLAG 800 144 Vout
FLAG -1936 336 0
FLAG -2000 16 0
FLAG -2352 448 0
FLAG -1168 320 0
FLAG -1232 0 0
SYMBOL res -432 176 R0
SYMATTR InstName R11
SYMATTR Value 8.245kK
SYMBOL res -224 320 R90
WINDOW 0 0 56 VBottom 2
WINDOW 3 32 56 VTop 2
SYMATTR InstName R12
SYMATTR Value 8.245k
SYMBOL res -432 -80 R0
SYMATTR InstName RA1
SYMATTR Value 100K
SYMBOL res -208 48 R90
WINDOW 0 0 56 VBottom 2
WINDOW 3 32 56 VTop 2
SYMATTR InstName RB1
SYMATTR Value 277.505k
SYMBOL cap -672 160 R90
WINDOW 0 0 32 VBottom 2
WINDOW 3 32 32 VTop 2
SYMATTR InstName C11
SYMATTR Value 10n
SYMBOL cap -496 160 R90
WINDOW 0 0 32 VBottom 2
WINDOW 3 32 32 VTop 2
SYMATTR InstName C12
SYMATTR Value 10n
SYMBOL voltage -832 256 R0
WINDOW 123 24 124 Left 2
WINDOW 39 0 0 Left 0
SYMATTR Value2 AC 1
SYMATTR InstName V1
SYMATTR Value SINE(0 10 1000)
SYMBOL res 736 192 R0
SYMATTR InstName Ry
SYMATTR Value 145.117K
SYMBOL res 736 128 R90
WINDOW 0 0 56 VBottom 2
WINDOW 3 32 56 VTop 2
SYMATTR InstName Rx
SYMATTR Value 321.647K
SYMBOL OpAmps\\opamp -272 96 R0
SYMATTR InstName U3
SYMBOL res -720 160 R90
WINDOW 0 0 56 VBottom 2
WINDOW 3 32 56 VTop 2
SYMATTR InstName R13
SYMATTR Value 8.245k
SYMBOL res -1952 240 R0
SYMATTR InstName R1
SYMATTR Value 8.245kK
SYMBOL res -1744 384 R90
WINDOW 0 0 56 VBottom 2
WINDOW 3 32 56 VTop 2
SYMATTR InstName R2
SYMATTR Value 8.245k
SYMBOL res -1952 -16 R0
SYMATTR InstName RA3
SYMATTR Value 100K
SYMBOL res -1728 112 R90
WINDOW 0 0 56 VBottom 2
WINDOW 3 32 56 VTop 2
SYMATTR InstName RB3
SYMATTR Value 277.505k
SYMBOL cap -2192 224 R90
WINDOW 0 0 32 VBottom 2
WINDOW 3 32 32 VTop 2
SYMATTR InstName C1
SYMATTR Value 10n
SYMBOL cap -2016 224 R90
WINDOW 0 0 32 VBottom 2
WINDOW 3 32 32 VTop 2
SYMATTR InstName C2
SYMATTR Value 10n
SYMBOL voltage -2352 320 R0
WINDOW 123 24 124 Left 2
WINDOW 39 0 0 Left 0
SYMATTR Value2 AC 1
SYMATTR InstName V2
SYMATTR Value SINE(0 10 1000)
SYMBOL res -1184 224 R0
SYMATTR InstName R3
SYMATTR Value 8.752k
SYMBOL res -976 368 R90
WINDOW 0 0 56 VBottom 2
WINDOW 3 32 56 VTop 2
SYMATTR InstName R4
SYMATTR Value 8.752k
SYMBOL res -1184 -32 R0
SYMATTR InstName RA4
SYMATTR Value 100K
SYMBOL res -960 96 R90
WINDOW 0 0 56 VBottom 2
WINDOW 3 32 56 VTop 2
SYMATTR InstName RB4
SYMATTR Value 261.902k
SYMBOL cap -1424 208 R90
WINDOW 0 0 32 VBottom 2
WINDOW 3 32 32 VTop 2
SYMATTR InstName C3
SYMATTR Value 10n
SYMBOL cap -1248 208 R90
WINDOW 0 -9 32 VBottom 2
WINDOW 3 32 32 VTop 2
SYMATTR InstName C4
SYMATTR Value 10n
SYMBOL OpAmps\\opamp -1792 160 R0
SYMATTR InstName U1
SYMBOL OpAmps\\opamp -1024 144 R0
SYMATTR InstName U2
SYMBOL res -2240 224 R90
WINDOW 0 0 56 VBottom 2
WINDOW 3 32 56 VTop 2
SYMATTR InstName R5
SYMATTR Value 8.245k
SYMBOL res -1520 208 R90
WINDOW 0 0 56 VBottom 2
WINDOW 3 32 56 VTop 2
SYMATTR InstName R6
SYMATTR Value 8.752k
TEXT -840 448 Left 2 !.ac dec 100 0.5k 100k
TEXT -2360 512 Left 2 !.ac dec 100 0.5k 100k
TEXT -1448 144 Left 2 !.lib opamp.sub
