Version 4
SHEET 1 880 680
WIRE 176 -96 112 -96
WIRE -416 -80 -480 -80
WIRE 176 -80 176 -96
WIRE -416 -64 -416 -80
WIRE 112 -64 112 -96
WIRE -480 -48 -480 -80
WIRE 176 48 176 0
WIRE 288 48 176 48
WIRE 400 48 368 48
WIRE -416 64 -416 16
WIRE -304 64 -416 64
WIRE -192 64 -224 64
WIRE 176 128 176 48
WIRE 288 128 176 128
WIRE -416 144 -416 64
WIRE -304 144 -416 144
WIRE 400 144 400 48
WIRE 400 144 352 144
WIRE 464 144 400 144
WIRE 576 144 544 144
WIRE 624 144 576 144
WIRE -192 160 -192 64
WIRE -192 160 -240 160
WIRE -144 160 -192 160
WIRE -32 160 -80 160
WIRE 32 160 -32 160
WIRE 176 160 96 160
WIRE 288 160 176 160
WIRE -736 176 -832 176
WIRE -624 176 -672 176
WIRE -560 176 -624 176
WIRE -416 176 -496 176
WIRE -304 176 -416 176
WIRE 176 176 176 160
WIRE -416 192 -416 176
WIRE -832 208 -832 176
WIRE 576 208 576 144
WIRE -832 320 -832 288
WIRE -32 320 -32 160
WIRE 272 320 -32 320
WIRE 400 320 400 144
WIRE 400 320 352 320
WIRE -624 336 -624 176
WIRE -320 336 -624 336
WIRE -192 336 -192 160
WIRE -192 336 -240 336
FLAG -416 272 0
FLAG -480 -48 0
FLAG -832 320 0
FLAG 176 256 0
FLAG 112 -64 0
FLAG 576 288 0
FLAG 624 144 Vout
SYMBOL res -432 176 R0
SYMATTR InstName R11
SYMATTR Value 5.735K
SYMBOL res -224 320 R90
WINDOW 0 0 56 VBottom 2
WINDOW 3 32 56 VTop 2
SYMATTR InstName R12
SYMATTR Value 5.735K
SYMBOL res -432 -80 R0
SYMATTR InstName RA1
SYMATTR Value 100K
SYMBOL res -208 48 R90
WINDOW 0 0 56 VBottom 2
WINDOW 3 32 56 VTop 2
SYMATTR InstName RB1
SYMATTR Value 123.463K
SYMBOL cap -672 160 R90
WINDOW 0 0 32 VBottom 2
WINDOW 3 32 32 VTop 2
SYMATTR InstName C11
SYMATTR Value 10n
SYMBOL cap -496 160 R90
WINDOW 0 0 32 VBottom 2
WINDOW 3 32 32 VTop 2
SYMATTR InstName C12
SYMATTR Value 10n
SYMBOL voltage -832 192 R0
WINDOW 123 24 124 Left 2
WINDOW 39 0 0 Left 0
SYMATTR Value2 AC 1
SYMATTR InstName V1
SYMATTR Value SINE(0 10 1000)
SYMBOL res 160 160 R0
SYMATTR InstName R21
SYMATTR Value 6.82K
SYMBOL res 368 304 R90
WINDOW 0 0 56 VBottom 2
WINDOW 3 32 56 VTop 2
SYMATTR InstName R22
SYMATTR Value 6.82K
SYMBOL res 160 -96 R0
SYMATTR InstName RA2
SYMATTR Value 100K
SYMBOL res 384 32 R90
WINDOW 0 0 56 VBottom 2
WINDOW 3 32 56 VTop 2
SYMATTR InstName RB2
SYMATTR Value 44.623K
SYMBOL cap -80 144 R90
WINDOW 0 0 32 VBottom 2
WINDOW 3 32 32 VTop 2
SYMATTR InstName C21
SYMATTR Value 10n
SYMBOL cap 96 144 R90
WINDOW 0 0 32 VBottom 2
WINDOW 3 32 32 VTop 2
SYMATTR InstName C22
SYMATTR Value 10n
SYMBOL res 560 192 R0
SYMATTR InstName Ry
SYMATTR Value 145.117K
SYMBOL res 560 128 R90
WINDOW 0 0 56 VBottom 2
WINDOW 3 32 56 VTop 2
SYMATTR InstName Rx
SYMATTR Value 321.647K
SYMBOL OpAmps\\opamp -272 96 R0
SYMATTR InstName U3
SYMBOL OpAmps\\opamp 320 80 R0
SYMATTR InstName U4
TEXT -864 384 Left 2 !.ac dec 100 0.5k 100k
TEXT -104 80 Left 2 !.lib opamp.sub
